13

C    0.00000000  0.00000000  0.00000000
C   -1.44141100  0.37947000 -0.35312600
C   -1.47138200  1.83061100  0.12473500
C   -0.07090800  2.28609100 -0.29515500
O    0.79289100  1.16858400 -0.15040000
H   -0.06510100  2.58655800 -1.37194400
H    0.31070200  3.13819300  0.31798300
H   -2.28865900  2.43070500 -0.34139000
H   -1.57565800  1.87218800  1.23563600
H   -1.59500800  0.33155800 -1.45800200
H   -2.20230200 -0.26424300  0.14873100
H    0.06729200 -0.32371600  1.06797800
H    0.40476900 -0.81482500 -0.64804400
